ac_opf/testcases/nesta_case118_ieee__sad.m
%%%%%%%%%%%%%%%%%%%%%%%%%%%%%%%%%%%%%%%%%%%%%%%%%%%%%%%%%%%%%%%%%%%%%%%%%%%
%%%%                                                                  %%%%%
%%%%      NICTA Energy System Test Case Archive (NESTA) - v0.7.0      %%%%%
%%%%           Optimal Power Flow - Small Angle Difference            %%%%%
%%%%                         05 - June - 2017                         %%%%%
%%%%                                                                  %%%%%
%%%%%%%%%%%%%%%%%%%%%%%%%%%%%%%%%%%%%%%%%%%%%%%%%%%%%%%%%%%%%%%%%%%%%%%%%%%
function mpc = nesta_case118_ieee__sad
mpc.version = '2';
mpc.baseMVA = 100.0;

%% bus data
%	bus_i	type	Pd	Qd	Gs	Bs	area	Vm	Va	baseKV	zone	Vmax	Vmin
mpc.bus = [
	1	 2	 51.0	 27.0	 0.0	 0.0	 1	    1.03469	   -4.41187	 138.0	 1	    1.06000	    0.94000;
	2	 1	 20.0	 9.0	 0.0	 0.0	 1	    1.04550	   -3.51549	 138.0	 1	    1.06000	    0.94000;
	3	 1	 39.0	 10.0	 0.0	 0.0	 1	    1.04071	   -3.71239	 138.0	 1	    1.06000	    0.94000;
	4	 2	 39.0	 12.0	 0.0	 0.0	 1	    1.06000	   -1.11653	 138.0	 1	    1.06000	    0.94000;
	5	 1	 0.0	 0.0	 0.0	 -40.0	 1	    1.05847	   -0.74197	 138.0	 1	    1.06000	    0.94000;
	6	 2	 52.0	 22.0	 0.0	 0.0	 1	    1.05842	   -2.49079	 138.0	 1	    1.06000	    0.94000;
	7	 1	 19.0	 2.0	 0.0	 0.0	 1	    1.05832	   -2.58099	 138.0	 1	    1.06000	    0.94000;
	8	 2	 28.0	 0.0	 0.0	 0.0	 1	    1.04251	    2.70617	 345.0	 1	    1.06000	    0.94000;
	9	 1	 0.0	 0.0	 0.0	 0.0	 1	    1.06000	   10.70883	 345.0	 1	    1.06000	    0.94000;
	10	 2	 0.0	 0.0	 0.0	 0.0	 1	    1.06000	   19.19885	 345.0	 1	    1.06000	    0.94000;
	11	 1	 70.0	 23.0	 0.0	 0.0	 1	    1.05213	   -2.69086	 138.0	 1	    1.06000	    0.94000;
	12	 2	 47.0	 10.0	 0.0	 0.0	 1	    1.06000	   -2.40431	 138.0	 1	    1.06000	    0.94000;
	13	 1	 34.0	 16.0	 0.0	 0.0	 1	    1.03796	   -5.16772	 138.0	 1	    1.06000	    0.94000;
	14	 1	 14.0	 1.0	 0.0	 0.0	 1	    1.05466	   -4.68775	 138.0	 1	    1.06000	    0.94000;
	15	 2	 90.0	 30.0	 0.0	 0.0	 1	    1.04866	   -9.55860	 138.0	 1	    1.06000	    0.94000;
	16	 1	 25.0	 10.0	 0.0	 0.0	 1	    1.05212	   -4.74314	 138.0	 1	    1.06000	    0.94000;
	17	 1	 11.0	 3.0	 0.0	 0.0	 1	    1.06000	   -7.62496	 138.0	 1	    1.06000	    0.94000;
	18	 2	 60.0	 34.0	 0.0	 0.0	 1	    1.05408	   -9.88946	 138.0	 1	    1.06000	    0.94000;
	19	 2	 45.0	 25.0	 0.0	 0.0	 1	    1.04808	  -10.48564	 138.0	 1	    1.06000	    0.94000;
	20	 1	 18.0	 3.0	 0.0	 0.0	 1	    1.03620	  -10.86025	 138.0	 1	    1.06000	    0.94000;
	21	 1	 14.0	 8.0	 0.0	 0.0	 1	    1.03101	  -10.31927	 138.0	 1	    1.06000	    0.94000;
	22	 1	 10.0	 5.0	 0.0	 0.0	 1	    1.03345	   -9.03157	 138.0	 1	    1.06000	    0.94000;
	23	 1	 7.0	 3.0	 0.0	 0.0	 1	    1.04487	   -6.13188	 138.0	 1	    1.06000	    0.94000;
	24	 2	 13.0	 0.0	 0.0	 0.0	 1	    1.06000	   -7.10431	 138.0	 1	    1.06000	    0.94000;
	25	 2	 0.0	 0.0	 0.0	 0.0	 1	    1.06000	   -0.48786	 138.0	 1	    1.06000	    0.94000;
	26	 2	 0.0	 0.0	 0.0	 0.0	 1	    1.05340	    3.22041	 345.0	 1	    1.06000	    0.94000;
	27	 2	 71.0	 13.0	 0.0	 0.0	 1	    0.94000	   -8.97787	 138.0	 1	    1.06000	    0.94000;
	28	 1	 17.0	 7.0	 0.0	 0.0	 1	    0.95101	  -10.06538	 138.0	 1	    1.06000	    0.94000;
	29	 1	 24.0	 4.0	 0.0	 0.0	 1	    0.97206	  -10.33020	 138.0	 1	    1.06000	    0.94000;
	30	 1	 0.0	 0.0	 0.0	 0.0	 1	    1.03443	   -3.24945	 345.0	 1	    1.06000	    0.94000;
	31	 2	 43.0	 27.0	 0.0	 0.0	 1	    0.98300	   -9.99183	 138.0	 1	    1.06000	    0.94000;
	32	 2	 59.0	 23.0	 0.0	 0.0	 1	    0.98465	   -9.60682	 138.0	 1	    1.06000	    0.94000;
	33	 1	 23.0	 9.0	 0.0	 0.0	 1	    1.04579	  -11.48363	 138.0	 1	    1.06000	    0.94000;
	34	 2	 59.0	 26.0	 0.0	 14.0	 1	    1.05832	  -12.53055	 138.0	 1	    1.06000	    0.94000;
	35	 1	 33.0	 9.0	 0.0	 0.0	 1	    1.05551	  -12.93327	 138.0	 1	    1.06000	    0.94000;
	36	 2	 31.0	 17.0	 0.0	 0.0	 1	    1.05610	  -12.94633	 138.0	 1	    1.06000	    0.94000;
	37	 1	 0.0	 0.0	 0.0	 -25.0	 1	    1.06000	  -12.07537	 138.0	 1	    1.06000	    0.94000;
	38	 1	 0.0	 0.0	 0.0	 0.0	 1	    1.01557	   -7.27739	 345.0	 1	    1.06000	    0.94000;
	39	 1	 27.0	 11.0	 0.0	 0.0	 1	    1.01961	  -15.79381	 138.0	 1	    1.06000	    0.94000;
	40	 2	 66.0	 23.0	 0.0	 0.0	 1	    1.00817	  -17.20280	 138.0	 1	    1.06000	    0.94000;
	41	 1	 37.0	 10.0	 0.0	 0.0	 1	    0.98316	  -17.75938	 138.0	 1	    1.06000	    0.94000;
	42	 2	 96.0	 23.0	 0.0	 0.0	 1	    0.94000	  -16.49378	 138.0	 1	    1.06000	    0.94000;
	43	 1	 18.0	 7.0	 0.0	 0.0	 1	    1.04254	  -13.92043	 138.0	 1	    1.06000	    0.94000;
	44	 1	 16.0	 8.0	 0.0	 10.0	 1	    1.03370	  -13.69310	 138.0	 1	    1.06000	    0.94000;
	45	 1	 53.0	 22.0	 0.0	 10.0	 1	    1.02786	  -12.74480	 138.0	 1	    1.06000	    0.94000;
	46	 2	 28.0	 10.0	 0.0	 10.0	 1	    1.04185	  -11.01208	 138.0	 1	    1.06000	    0.94000;
	47	 1	 34.0	 0.0	 0.0	 0.0	 1	    1.04452	   -8.49001	 138.0	 1	    1.06000	    0.94000;
	48	 1	 20.0	 11.0	 0.0	 15.0	 1	    1.04673	   -9.11845	 138.0	 1	    1.06000	    0.94000;
	49	 2	 87.0	 30.0	 0.0	 0.0	 1	    1.04792	   -8.00377	 138.0	 1	    1.06000	    0.94000;
	50	 1	 17.0	 4.0	 0.0	 0.0	 1	    1.03325	  -10.72529	 138.0	 1	    1.06000	    0.94000;
	51	 1	 17.0	 8.0	 0.0	 0.0	 1	    1.01208	  -14.13888	 138.0	 1	    1.06000	    0.94000;
	52	 1	 18.0	 5.0	 0.0	 0.0	 1	    1.00579	  -15.27355	 138.0	 1	    1.06000	    0.94000;
	53	 1	 23.0	 11.0	 0.0	 0.0	 1	    1.00547	  -16.82201	 138.0	 1	    1.06000	    0.94000;
	54	 2	 113.0	 32.0	 0.0	 0.0	 1	    1.02110	  -16.49378	 138.0	 1	    1.06000	    0.94000;
	55	 2	 63.0	 22.0	 0.0	 0.0	 1	    1.01753	  -16.88752	 138.0	 1	    1.06000	    0.94000;
	56	 2	 84.0	 18.0	 0.0	 0.0	 1	    1.01832	  -16.61756	 138.0	 1	    1.06000	    0.94000;
	57	 1	 12.0	 3.0	 0.0	 0.0	 1	    1.02092	  -14.49771	 138.0	 1	    1.06000	    0.94000;
	58	 1	 12.0	 3.0	 0.0	 0.0	 1	    1.01243	  -15.46918	 138.0	 1	    1.06000	    0.94000;
	59	 2	 277.0	 113.0	 0.0	 0.0	 1	    1.02219	  -14.25482	 138.0	 1	    1.06000	    0.94000;
	60	 1	 78.0	 3.0	 0.0	 0.0	 1	    0.99903	   -9.24458	 138.0	 1	    1.06000	    0.94000;
	61	 2	 0.0	 0.0	 0.0	 0.0	 1	    0.99949	   -8.46443	 138.0	 1	    1.06000	    0.94000;
	62	 2	 77.0	 14.0	 0.0	 0.0	 1	    0.99840	   -8.00377	 138.0	 1	    1.06000	    0.94000;
	63	 1	 0.0	 0.0	 0.0	 0.0	 1	    0.98768	   -9.36541	 345.0	 1	    1.06000	    0.94000;
	64	 1	 0.0	 0.0	 0.0	 0.0	 1	    0.99627	   -6.67722	 345.0	 1	    1.06000	    0.94000;
	65	 2	 0.0	 0.0	 0.0	 0.0	 1	    1.02496	   -0.79100	 345.0	 1	    1.06000	    0.94000;
	66	 2	 39.0	 18.0	 0.0	 0.0	 1	    1.06000	    0.48624	 138.0	 1	    1.06000	    0.94000;
	67	 1	 28.0	 7.0	 0.0	 0.0	 1	    1.02309	   -4.13333	 138.0	 1	    1.06000	    0.94000;
	68	 1	 0.0	 0.0	 0.0	 0.0	 1	    1.04709	   -2.64890	 345.0	 1	    1.06000	    0.94000;
	69	 3	 0.0	 0.0	 0.0	 0.0	 1	    1.06000	   -0.00000	 138.0	 1	    1.06000	    0.94000;
	70	 2	 66.0	 20.0	 0.0	 0.0	 1	    1.02954	   -7.69733	 138.0	 1	    1.06000	    0.94000;
	71	 1	 0.0	 0.0	 0.0	 0.0	 1	    1.03161	   -7.86344	 138.0	 1	    1.06000	    0.94000;
	72	 2	 12.0	 0.0	 0.0	 0.0	 1	    1.04051	   -8.06154	 138.0	 1	    1.06000	    0.94000;
	73	 2	 6.0	 0.0	 0.0	 0.0	 1	    1.03066	   -8.00553	 138.0	 1	    1.06000	    0.94000;
	74	 2	 68.0	 27.0	 0.0	 12.0	 1	    0.99710	   -9.40146	 138.0	 1	    1.06000	    0.94000;
	75	 1	 47.0	 11.0	 0.0	 0.0	 1	    1.00349	   -8.49001	 138.0	 1	    1.06000	    0.94000;
	76	 2	 68.0	 36.0	 0.0	 0.0	 1	    0.98267	  -10.95653	 138.0	 1	    1.06000	    0.94000;
	77	 2	 61.0	 28.0	 0.0	 0.0	 1	    1.02842	   -8.01238	 138.0	 1	    1.06000	    0.94000;
	78	 1	 71.0	 26.0	 0.0	 0.0	 1	    1.02562	   -8.48818	 138.0	 1	    1.06000	    0.94000;
	79	 1	 39.0	 32.0	 0.0	 20.0	 1	    1.03124	   -8.55873	 138.0	 1	    1.06000	    0.94000;
	80	 2	 130.0	 26.0	 0.0	 0.0	 1	    1.06000	   -7.39140	 138.0	 1	    1.06000	    0.94000;
	81	 1	 0.0	 0.0	 0.0	 0.0	 1	    1.02817	   -4.36384	 345.0	 1	    1.06000	    0.94000;
	82	 1	 54.0	 27.0	 0.0	 20.0	 1	    1.02745	   -9.22039	 138.0	 1	    1.06000	    0.94000;
	83	 1	 20.0	 10.0	 0.0	 10.0	 1	    1.03116	   -8.58722	 138.0	 1	    1.06000	    0.94000;
	84	 1	 11.0	 7.0	 0.0	 0.0	 1	    1.03671	   -7.04245	 138.0	 1	    1.06000	    0.94000;
	85	 2	 24.0	 15.0	 0.0	 0.0	 1	    1.04599	   -6.00978	 138.0	 1	    1.06000	    0.94000;
	86	 1	 21.0	 10.0	 0.0	 0.0	 1	    1.03894	   -7.37751	 138.0	 1	    1.06000	    0.94000;
	87	 2	 0.0	 0.0	 0.0	 0.0	 1	    1.05168	   -7.47332	 161.0	 1	    1.06000	    0.94000;
	88	 1	 48.0	 10.0	 0.0	 0.0	 1	    1.04602	   -3.54624	 138.0	 1	    1.06000	    0.94000;
	89	 2	 0.0	 0.0	 0.0	 0.0	 1	    1.06000	   -0.13542	 138.0	 1	    1.06000	    0.94000;
	90	 2	 163.0	 42.0	 0.0	 0.0	 1	    1.05151	   -5.89010	 138.0	 1	    1.06000	    0.94000;
	91	 2	 10.0	 0.0	 0.0	 0.0	 1	    1.04433	   -5.74687	 138.0	 1	    1.06000	    0.94000;
	92	 2	 65.0	 10.0	 0.0	 0.0	 1	    1.04462	   -4.98269	 138.0	 1	    1.06000	    0.94000;
	93	 1	 12.0	 7.0	 0.0	 0.0	 1	    1.03393	   -7.27272	 138.0	 1	    1.06000	    0.94000;
	94	 1	 30.0	 16.0	 0.0	 0.0	 1	    1.03182	   -8.85985	 138.0	 1	    1.06000	    0.94000;
	95	 1	 42.0	 31.0	 0.0	 0.0	 1	    1.02047	   -9.48716	 138.0	 1	    1.06000	    0.94000;
	96	 1	 38.0	 15.0	 0.0	 0.0	 1	    1.02905	   -9.29883	 138.0	 1	    1.06000	    0.94000;
	97	 1	 15.0	 9.0	 0.0	 0.0	 1	    1.03989	   -8.68658	 138.0	 1	    1.06000	    0.94000;
	98	 1	 34.0	 8.0	 0.0	 0.0	 1	    1.04985	   -9.35893	 138.0	 1	    1.06000	    0.94000;
	99	 2	 42.0	 0.0	 0.0	 0.0	 1	    1.05124	  -10.23080	 138.0	 1	    1.06000	    0.94000;
	100	 2	 37.0	 18.0	 0.0	 0.0	 1	    1.05333	   -9.56465	 138.0	 1	    1.06000	    0.94000;
	101	 1	 22.0	 15.0	 0.0	 0.0	 1	    1.03685	   -8.40812	 138.0	 1	    1.06000	    0.94000;
	102	 1	 5.0	 3.0	 0.0	 0.0	 1	    1.04100	   -6.21320	 138.0	 1	    1.06000	    0.94000;
	103	 2	 23.0	 16.0	 0.0	 0.0	 1	    1.05042	  -12.40693	 138.0	 1	    1.06000	    0.94000;
	104	 2	 38.0	 25.0	 0.0	 0.0	 1	    1.03714	  -15.69003	 138.0	 1	    1.06000	    0.94000;
	105	 2	 31.0	 26.0	 0.0	 20.0	 1	    1.03462	  -16.85587	 138.0	 1	    1.06000	    0.94000;
	106	 1	 43.0	 16.0	 0.0	 0.0	 1	    1.02654	  -16.99123	 138.0	 1	    1.06000	    0.94000;
	107	 2	 50.0	 12.0	 0.0	 6.0	 1	    1.02212	  -19.50199	 138.0	 1	    1.06000	    0.94000;
	108	 1	 2.0	 1.0	 0.0	 0.0	 1	    1.02801	  -18.39762	 138.0	 1	    1.06000	    0.94000;
	109	 1	 8.0	 3.0	 0.0	 0.0	 1	    1.02569	  -19.00068	 138.0	 1	    1.06000	    0.94000;
	110	 2	 39.0	 30.0	 0.0	 6.0	 1	    1.02325	  -20.29437	 138.0	 1	    1.06000	    0.94000;
	111	 2	 0.0	 0.0	 0.0	 0.0	 1	    1.02635	  -20.34507	 138.0	 1	    1.06000	    0.94000;
	112	 2	 68.0	 13.0	 0.0	 0.0	 1	    1.00979	  -22.79822	 138.0	 1	    1.06000	    0.94000;
	113	 2	 6.0	 0.0	 0.0	 0.0	 1	    1.05876	   -8.09491	 138.0	 1	    1.06000	    0.94000;
	114	 1	 8.0	 3.0	 0.0	 0.0	 1	    0.96088	   -9.91409	 138.0	 1	    1.06000	    0.94000;
	115	 1	 22.0	 7.0	 0.0	 0.0	 1	    0.95726	   -9.91889	 138.0	 1	    1.06000	    0.94000;
	116	 2	 184.0	 0.0	 0.0	 0.0	 1	    1.06000	   -3.09574	 138.0	 1	    1.06000	    0.94000;
	117	 1	 20.0	 8.0	 0.0	 0.0	 1	    1.04532	   -3.74947	 138.0	 1	    1.06000	    0.94000;
	118	 1	 33.0	 15.0	 0.0	 0.0	 1	    0.98733	  -10.06484	 138.0	 1	    1.06000	    0.94000;
];

%% generator data
%	bus	Pg	Qg	Qmax	Qmin	Vg	mBase	status	Pmax	Pmin	Pc1	Pc2	Qc1min	Qc1max	Qc2min	Qc2max	ramp_agc	ramp_10	ramp_30	ramp_q	apf
mpc.gen = [
	1	 0.0	 15.0	 15.0	 -5.0	 1.03469	 100.0	 1	 0.0	 0.0	 0.0	 0.0	 0.0	 0.0	 0.0	 0.0	 0.0	 0.0	 0.0	 0.0	 0.0;
	4	 0.0	 49.148	 300.0	 -300.0	 1.06	 100.0	 1	 0.0	 0.0	 0.0	 0.0	 0.0	 0.0	 0.0	 0.0	 0.0	 0.0	 0.0	 0.0	 0.0;
	6	 0.0	 33.761	 50.0	 -13.0	 1.05842	 100.0	 1	 0.0	 0.0	 0.0	 0.0	 0.0	 0.0	 0.0	 0.0	 0.0	 0.0	 0.0	 0.0	 0.0;
	8	 0.0	 -58.9	 300.0	 -300.0	 1.04251	 100.0	 1	 0.0	 0.0	 0.0	 0.0	 0.0	 0.0	 0.0	 0.0	 0.0	 0.0	 0.0	 0.0	 0.0;
	10	 514.929	 -72.121	 200.0	 -147.0	 1.06	 100.0	 1	 663.0	 0.0	 0.0	 0.0	 0.0	 0.0	 0.0	 0.0	 0.0	 0.0	 0.0	 0.0	 0.0;
	12	 287.0	 51.413	 120.0	 -35.0	 1.06	 100.0	 1	 287.0	 0.0	 0.0	 0.0	 0.0	 0.0	 0.0	 0.0	 0.0	 0.0	 0.0	 0.0	 0.0;
	15	 0.0	 30.0	 30.0	 -10.0	 1.04866	 100.0	 1	 0.0	 0.0	 0.0	 0.0	 0.0	 0.0	 0.0	 0.0	 0.0	 0.0	 0.0	 0.0	 0.0;
	18	 0.0	 50.0	 50.0	 -16.0	 1.05408	 100.0	 1	 0.0	 0.0	 0.0	 0.0	 0.0	 0.0	 0.0	 0.0	 0.0	 0.0	 0.0	 0.0	 0.0;
	19	 0.0	 24.0	 24.0	 -8.0	 1.04808	 100.0	 1	 0.0	 0.0	 0.0	 0.0	 0.0	 0.0	 0.0	 0.0	 0.0	 0.0	 0.0	 0.0	 0.0;
	24	 0.0	 44.739	 300.0	 -300.0	 1.06	 100.0	 1	 0.0	 0.0	 0.0	 0.0	 0.0	 0.0	 0.0	 0.0	 0.0	 0.0	 0.0	 0.0	 0.0;
	25	 42.132	 -47.0	 134.0	 -47.0	 1.06	 100.0	 1	 267.0	 0.0	 0.0	 0.0	 0.0	 0.0	 0.0	 0.0	 0.0	 0.0	 0.0	 0.0	 0.0;
	26	 341.364	 81.001	 226.0	 -226.0	 1.0534	 100.0	 1	 451.0	 0.0	 0.0	 0.0	 0.0	 0.0	 0.0	 0.0	 0.0	 0.0	 0.0	 0.0	 0.0;
	27	 0.0	 -135.808	 300.0	 -300.0	 0.94	 100.0	 1	 0.0	 0.0	 0.0	 0.0	 0.0	 0.0	 0.0	 0.0	 0.0	 0.0	 0.0	 0.0	 0.0;
	31	 23.0	 12.0	 12.0	 -12.0	 0.983	 100.0	 1	 23.0	 0.0	 0.0	 0.0	 0.0	 0.0	 0.0	 0.0	 0.0	 0.0	 0.0	 0.0	 0.0;
	32	 0.0	 42.0	 42.0	 -14.0	 0.98465	 100.0	 1	 0.0	 0.0	 0.0	 0.0	 0.0	 0.0	 0.0	 0.0	 0.0	 0.0	 0.0	 0.0	 0.0;
	34	 0.0	 24.0	 24.0	 -8.0	 1.05832	 100.0	 1	 0.0	 0.0	 0.0	 0.0	 0.0	 0.0	 0.0	 0.0	 0.0	 0.0	 0.0	 0.0	 0.0;
	36	 0.0	 24.0	 24.0	 -8.0	 1.0561	 100.0	 1	 0.0	 0.0	 0.0	 0.0	 0.0	 0.0	 0.0	 0.0	 0.0	 0.0	 0.0	 0.0	 0.0;
	40	 0.0	 82.635	 300.0	 -300.0	 1.00817	 100.0	 1	 0.0	 0.0	 0.0	 0.0	 0.0	 0.0	 0.0	 0.0	 0.0	 0.0	 0.0	 0.0	 0.0;
	42	 0.0	 -88.061	 300.0	 -300.0	 0.94	 100.0	 1	 0.0	 0.0	 0.0	 0.0	 0.0	 0.0	 0.0	 0.0	 0.0	 0.0	 0.0	 0.0	 0.0;
	46	 0.0	 9.263	 26.0	 -26.0	 1.04185	 100.0	 1	 51.0	 0.0	 0.0	 0.0	 0.0	 0.0	 0.0	 0.0	 0.0	 0.0	 0.0	 0.0	 0.0;
	49	 160.827	 116.0	 116.0	 -85.0	 1.04792	 100.0	 1	 232.0	 0.0	 0.0	 0.0	 0.0	 0.0	 0.0	 0.0	 0.0	 0.0	 0.0	 0.0	 0.0;
	54	 39.686	 75.0	 75.0	 -75.0	 1.0211	 100.0	 1	 150.0	 0.0	 0.0	 0.0	 0.0	 0.0	 0.0	 0.0	 0.0	 0.0	 0.0	 0.0	 0.0;
	55	 0.0	 23.0	 23.0	 -8.0	 1.01753	 100.0	 1	 0.0	 0.0	 0.0	 0.0	 0.0	 0.0	 0.0	 0.0	 0.0	 0.0	 0.0	 0.0	 0.0;
	56	 0.0	 15.0	 15.0	 -8.0	 1.01832	 100.0	 1	 0.0	 0.0	 0.0	 0.0	 0.0	 0.0	 0.0	 0.0	 0.0	 0.0	 0.0	 0.0	 0.0;
	59	 0.0	 141.0	 141.0	 -60.0	 1.02219	 100.0	 1	 282.0	 0.0	 0.0	 0.0	 0.0	 0.0	 0.0	 0.0	 0.0	 0.0	 0.0	 0.0	 0.0;
	61	 23.544	 -79.063	 126.0	 -100.0	 0.99949	 100.0	 1	 251.0	 0.0	 0.0	 0.0	 0.0	 0.0	 0.0	 0.0	 0.0	 0.0	 0.0	 0.0	 0.0;
	62	 0.0	 -20.0	 20.0	 -20.0	 0.9984	 100.0	 1	 0.0	 0.0	 0.0	 0.0	 0.0	 0.0	 0.0	 0.0	 0.0	 0.0	 0.0	 0.0	 0.0;
	65	 608.0	 -67.0	 200.0	 -67.0	 1.02496	 100.0	 1	 608.0	 0.0	 0.0	 0.0	 0.0	 0.0	 0.0	 0.0	 0.0	 0.0	 0.0	 0.0	 0.0;
	66	 629.633	 -67.0	 200.0	 -67.0	 1.06	 100.0	 1	 865.0	 0.0	 0.0	 0.0	 0.0	 0.0	 0.0	 0.0	 0.0	 0.0	 0.0	 0.0	 0.0;
	69	 650.432	 -192.139	 300.0	 -300.0	 1.06	 100.0	 1	 881.0	 0.0	 0.0	 0.0	 0.0	 0.0	 0.0	 0.0	 0.0	 0.0	 0.0	 0.0	 0.0;
	70	 0.0	 30.088	 32.0	 -10.0	 1.02954	 100.0	 1	 0.0	 0.0	 0.0	 0.0	 0.0	 0.0	 0.0	 0.0	 0.0	 0.0	 0.0	 0.0	 0.0;
	72	 0.0	 -7.18	 100.0	 -100.0	 1.04051	 100.0	 1	 0.0	 0.0	 0.0	 0.0	 0.0	 0.0	 0.0	 0.0	 0.0	 0.0	 0.0	 0.0	 0.0;
	73	 0.0	 -1.632	 100.0	 -100.0	 1.03066	 100.0	 1	 0.0	 0.0	 0.0	 0.0	 0.0	 0.0	 0.0	 0.0	 0.0	 0.0	 0.0	 0.0	 0.0;
	74	 0.0	 -6.0	 9.0	 -6.0	 0.9971	 100.0	 1	 0.0	 0.0	 0.0	 0.0	 0.0	 0.0	 0.0	 0.0	 0.0	 0.0	 0.0	 0.0	 0.0;
	76	 0.0	 16.328	 23.0	 -8.0	 0.98267	 100.0	 1	 0.0	 0.0	 0.0	 0.0	 0.0	 0.0	 0.0	 0.0	 0.0	 0.0	 0.0	 0.0	 0.0;
	77	 0.0	 -20.0	 70.0	 -20.0	 1.02842	 100.0	 1	 0.0	 0.0	 0.0	 0.0	 0.0	 0.0	 0.0	 0.0	 0.0	 0.0	 0.0	 0.0	 0.0;
	80	 180.308	 51.62	 280.0	 -165.0	 1.06	 100.0	 1	 739.0	 0.0	 0.0	 0.0	 0.0	 0.0	 0.0	 0.0	 0.0	 0.0	 0.0	 0.0	 0.0;
	85	 0.0	 23.0	 23.0	 -8.0	 1.04599	 100.0	 1	 0.0	 0.0	 0.0	 0.0	 0.0	 0.0	 0.0	 0.0	 0.0	 0.0	 0.0	 0.0	 0.0;
	87	 0.0	 4.0	 4.0	 -4.0	 1.05168	 100.0	 1	 7.0	 0.0	 0.0	 0.0	 0.0	 0.0	 0.0	 0.0	 0.0	 0.0	 0.0	 0.0	 0.0;
	89	 571.013	 -27.489	 300.0	 -210.0	 1.06	 100.0	 1	 845.0	 0.0	 0.0	 0.0	 0.0	 0.0	 0.0	 0.0	 0.0	 0.0	 0.0	 0.0	 0.0;
	90	 0.0	 76.982	 300.0	 -300.0	 1.05151	 100.0	 1	 0.0	 0.0	 0.0	 0.0	 0.0	 0.0	 0.0	 0.0	 0.0	 0.0	 0.0	 0.0	 0.0;
	91	 0.0	 -9.026	 100.0	 -100.0	 1.04433	 100.0	 1	 0.0	 0.0	 0.0	 0.0	 0.0	 0.0	 0.0	 0.0	 0.0	 0.0	 0.0	 0.0	 0.0;
	92	 0.0	 -3.0	 9.0	 -3.0	 1.04462	 100.0	 1	 0.0	 0.0	 0.0	 0.0	 0.0	 0.0	 0.0	 0.0	 0.0	 0.0	 0.0	 0.0	 0.0;
	99	 0.0	 -1.353	 100.0	 -100.0	 1.05124	 100.0	 1	 0.0	 0.0	 0.0	 0.0	 0.0	 0.0	 0.0	 0.0	 0.0	 0.0	 0.0	 0.0	 0.0;
	100	 215.59	 45.848	 151.0	 -50.0	 1.05333	 100.0	 1	 301.0	 0.0	 0.0	 0.0	 0.0	 0.0	 0.0	 0.0	 0.0	 0.0	 0.0	 0.0	 0.0;
	103	 98.0	 29.953	 40.0	 -15.0	 1.05042	 100.0	 1	 98.0	 0.0	 0.0	 0.0	 0.0	 0.0	 0.0	 0.0	 0.0	 0.0	 0.0	 0.0	 0.0;
	104	 0.0	 23.0	 23.0	 -8.0	 1.03714	 100.0	 1	 0.0	 0.0	 0.0	 0.0	 0.0	 0.0	 0.0	 0.0	 0.0	 0.0	 0.0	 0.0	 0.0;
	105	 0.0	 23.0	 23.0	 -8.0	 1.03462	 100.0	 1	 0.0	 0.0	 0.0	 0.0	 0.0	 0.0	 0.0	 0.0	 0.0	 0.0	 0.0	 0.0	 0.0;
	107	 0.0	 7.001	 200.0	 -200.0	 1.02212	 100.0	 1	 0.0	 0.0	 0.0	 0.0	 0.0	 0.0	 0.0	 0.0	 0.0	 0.0	 0.0	 0.0	 0.0;
	110	 0.0	 23.0	 23.0	 -8.0	 1.02325	 100.0	 1	 0.0	 0.0	 0.0	 0.0	 0.0	 0.0	 0.0	 0.0	 0.0	 0.0	 0.0	 0.0	 0.0;
	111	 0.0	 3.171	 67.0	 -67.0	 1.02635	 100.0	 1	 133.0	 0.0	 0.0	 0.0	 0.0	 0.0	 0.0	 0.0	 0.0	 0.0	 0.0	 0.0	 0.0;
	112	 0.0	 16.397	 1000.0	 -100.0	 1.00979	 100.0	 1	 0.0	 0.0	 0.0	 0.0	 0.0	 0.0	 0.0	 0.0	 0.0	 0.0	 0.0	 0.0	 0.0;
	113	 0.0	 33.073	 200.0	 -100.0	 1.05876	 100.0	 1	 0.0	 0.0	 0.0	 0.0	 0.0	 0.0	 0.0	 0.0	 0.0	 0.0	 0.0	 0.0	 0.0;
	116	 0.0	 344.87	 1000.0	 -1000.0	 1.06	 100.0	 1	 0.0	 0.0	 0.0	 0.0	 0.0	 0.0	 0.0	 0.0	 0.0	 0.0	 0.0	 0.0	 0.0;
];

%% generator cost data
%	2	startup	shutdown	n	c(n-1)	...	c0
mpc.gencost = [
	2	 0.0	 0.0	 3	   0.000000	   0.000000	   0.000000;
	2	 0.0	 0.0	 3	   0.000000	   0.000000	   0.000000;
	2	 0.0	 0.0	 3	   0.000000	   0.000000	   0.000000;
	2	 0.0	 0.0	 3	   0.000000	   0.000000	   0.000000;
	2	 0.0	 0.0	 3	   0.000000	   1.463389	   0.000000;
	2	 0.0	 0.0	 3	   0.000000	   0.889054	   0.000000;
	2	 0.0	 0.0	 3	   0.000000	   0.000000	   0.000000;
	2	 0.0	 0.0	 3	   0.000000	   0.000000	   0.000000;
	2	 0.0	 0.0	 3	   0.000000	   0.000000	   0.000000;
	2	 0.0	 0.0	 3	   0.000000	   0.000000	   0.000000;
	2	 0.0	 0.0	 3	   0.000000	   0.929688	   0.000000;
	2	 0.0	 0.0	 3	   0.000000	   1.118121	   0.000000;
	2	 0.0	 0.0	 3	   0.000000	   0.000000	   0.000000;
	2	 0.0	 0.0	 3	   0.000000	   0.814446	   0.000000;
	2	 0.0	 0.0	 3	   0.000000	   0.000000	   0.000000;
	2	 0.0	 0.0	 3	   0.000000	   0.000000	   0.000000;
	2	 0.0	 0.0	 3	   0.000000	   0.000000	   0.000000;
	2	 0.0	 0.0	 3	   0.000000	   0.000000	   0.000000;
	2	 0.0	 0.0	 3	   0.000000	   0.000000	   0.000000;
	2	 0.0	 0.0	 3	   0.000000	   1.513792	   0.000000;
	2	 0.0	 0.0	 3	   0.000000	   1.071413	   0.000000;
	2	 0.0	 0.0	 3	   0.000000	   1.324712	   0.000000;
	2	 0.0	 0.0	 3	   0.000000	   0.000000	   0.000000;
	2	 0.0	 0.0	 3	   0.000000	   0.000000	   0.000000;
	2	 0.0	 0.0	 3	   0.000000	   1.426207	   0.000000;
	2	 0.0	 0.0	 3	   0.000000	   1.245208	   0.000000;
	2	 0.0	 0.0	 3	   0.000000	   0.000000	   0.000000;
	2	 0.0	 0.0	 3	   0.000000	   0.969762	   0.000000;
	2	 0.0	 0.0	 3	   0.000000	   0.865713	   0.000000;
	2	 0.0	 0.0	 3	   0.000000	   0.518513	   0.000000;
	2	 0.0	 0.0	 3	   0.000000	   0.000000	   0.000000;
	2	 0.0	 0.0	 3	   0.000000	   0.000000	   0.000000;
	2	 0.0	 0.0	 3	   0.000000	   0.000000	   0.000000;
	2	 0.0	 0.0	 3	   0.000000	   0.000000	   0.000000;
	2	 0.0	 0.0	 3	   0.000000	   0.000000	   0.000000;
	2	 0.0	 0.0	 3	   0.000000	   0.000000	   0.000000;
	2	 0.0	 0.0	 3	   0.000000	   1.006636	   0.000000;
	2	 0.0	 0.0	 3	   0.000000	   0.000000	   0.000000;
	2	 0.0	 0.0	 3	   0.000000	   1.381184	   0.000000;
	2	 0.0	 0.0	 3	   0.000000	   0.793496	   0.000000;
	2	 0.0	 0.0	 3	   0.000000	   0.000000	   0.000000;
	2	 0.0	 0.0	 3	   0.000000	   0.000000	   0.000000;
	2	 0.0	 0.0	 3	   0.000000	   0.000000	   0.000000;
	2	 0.0	 0.0	 3	   0.000000	   0.000000	   0.000000;
	2	 0.0	 0.0	 3	   0.000000	   1.066562	   0.000000;
	2	 0.0	 0.0	 3	   0.000000	   0.691193	   0.000000;
	2	 0.0	 0.0	 3	   0.000000	   0.000000	   0.000000;
	2	 0.0	 0.0	 3	   0.000000	   0.000000	   0.000000;
	2	 0.0	 0.0	 3	   0.000000	   0.000000	   0.000000;
	2	 0.0	 0.0	 3	   0.000000	   0.000000	   0.000000;
	2	 0.0	 0.0	 3	   0.000000	   1.200887	   0.000000;
	2	 0.0	 0.0	 3	   0.000000	   0.000000	   0.000000;
	2	 0.0	 0.0	 3	   0.000000	   0.000000	   0.000000;
	2	 0.0	 0.0	 3	   0.000000	   0.000000	   0.000000;
];

%% branch data
%	fbus	tbus	r	x	b	rateA	rateB	rateC	ratio	angle	status	angmin	angmax
mpc.branch = [
	1	 2	 0.0303	 0.0999	 0.0254	 151.0	 151.0	 151.0	 0.0	 0.0	 1	 -8.490012	 8.490012;
	1	 3	 0.0129	 0.0424	 0.01082	 151.0	 151.0	 151.0	 0.0	 0.0	 1	 -8.490012	 8.490012;
	4	 5	 0.00176	 0.00798	 0.0021	 176.0	 176.0	 176.0	 0.0	 0.0	 1	 -8.490012	 8.490012;
	3	 5	 0.0241	 0.108	 0.0284	 175.0	 175.0	 175.0	 0.0	 0.0	 1	 -8.490012	 8.490012;
	5	 6	 0.0119	 0.054	 0.01426	 176.0	 176.0	 176.0	 0.0	 0.0	 1	 -8.490012	 8.490012;
	6	 7	 0.00459	 0.0208	 0.0055	 176.0	 176.0	 176.0	 0.0	 0.0	 1	 -8.490012	 8.490012;
	8	 9	 0.00244	 0.0305	 1.162	 711.0	 711.0	 711.0	 0.0	 0.0	 1	 -8.490012	 8.490012;
	8	 5	 0.0	 0.0267	 0.0	 1099.0	 1099.0	 1099.0	 0.985	 0.0	 1	 -8.490012	 8.490012;
	9	 10	 0.00258	 0.0322	 1.23	 710.0	 710.0	 710.0	 0.0	 0.0	 1	 -8.490012	 8.490012;
	4	 11	 0.0209	 0.0688	 0.01748	 151.0	 151.0	 151.0	 0.0	 0.0	 1	 -8.490012	 8.490012;
	5	 11	 0.0203	 0.0682	 0.01738	 152.0	 152.0	 152.0	 0.0	 0.0	 1	 -8.490012	 8.490012;
	11	 12	 0.00595	 0.0196	 0.00502	 151.0	 151.0	 151.0	 0.0	 0.0	 1	 -8.490012	 8.490012;
	2	 12	 0.0187	 0.0616	 0.01572	 151.0	 151.0	 151.0	 0.0	 0.0	 1	 -8.490012	 8.490012;
	3	 12	 0.0484	 0.16	 0.0406	 151.0	 151.0	 151.0	 0.0	 0.0	 1	 -8.490012	 8.490012;
	7	 12	 0.00862	 0.034	 0.00874	 164.0	 164.0	 164.0	 0.0	 0.0	 1	 -8.490012	 8.490012;
	11	 13	 0.02225	 0.0731	 0.01876	 151.0	 151.0	 151.0	 0.0	 0.0	 1	 -8.490012	 8.490012;
	12	 14	 0.0215	 0.0707	 0.01816	 151.0	 151.0	 151.0	 0.0	 0.0	 1	 -8.490012	 8.490012;
	13	 15	 0.0744	 0.2444	 0.06268	 115.0	 115.0	 115.0	 0.0	 0.0	 1	 -8.490012	 8.490012;
	14	 15	 0.0595	 0.195	 0.0502	 144.0	 144.0	 144.0	 0.0	 0.0	 1	 -8.490012	 8.490012;
	12	 16	 0.0212	 0.0834	 0.0214	 164.0	 164.0	 164.0	 0.0	 0.0	 1	 -8.490012	 8.490012;
	15	 17	 0.0132	 0.0437	 0.0444	 151.0	 151.0	 151.0	 0.0	 0.0	 1	 -8.490012	 8.490012;
	16	 17	 0.0454	 0.1801	 0.0466	 158.0	 158.0	 158.0	 0.0	 0.0	 1	 -8.490012	 8.490012;
	17	 18	 0.0123	 0.0505	 0.01298	 167.0	 167.0	 167.0	 0.0	 0.0	 1	 -8.490012	 8.490012;
	18	 19	 0.01119	 0.0493	 0.01142	 173.0	 173.0	 173.0	 0.0	 0.0	 1	 -8.490012	 8.490012;
	19	 20	 0.0252	 0.117	 0.0298	 178.0	 178.0	 178.0	 0.0	 0.0	 1	 -8.490012	 8.490012;
	15	 19	 0.012	 0.0394	 0.0101	 151.0	 151.0	 151.0	 0.0	 0.0	 1	 -8.490012	 8.490012;
	20	 21	 0.0183	 0.0849	 0.0216	 177.0	 177.0	 177.0	 0.0	 0.0	 1	 -8.490012	 8.490012;
	21	 22	 0.0209	 0.097	 0.0246	 178.0	 178.0	 178.0	 0.0	 0.0	 1	 -8.490012	 8.490012;
	22	 23	 0.0342	 0.159	 0.0404	 178.0	 178.0	 178.0	 0.0	 0.0	 1	 -8.490012	 8.490012;
	23	 24	 0.0135	 0.0492	 0.0498	 158.0	 158.0	 158.0	 0.0	 0.0	 1	 -8.490012	 8.490012;
	23	 25	 0.0156	 0.08	 0.0864	 186.0	 186.0	 186.0	 0.0	 0.0	 1	 -8.490012	 8.490012;
	26	 25	 0.0	 0.0382	 0.0	 768.0	 768.0	 768.0	 0.96	 0.0	 1	 -8.490012	 8.490012;
	25	 27	 0.0318	 0.163	 0.1764	 177.0	 177.0	 177.0	 0.0	 0.0	 1	 -8.490012	 8.490012;
	27	 28	 0.01913	 0.0855	 0.0216	 174.0	 174.0	 174.0	 0.0	 0.0	 1	 -8.490012	 8.490012;
	28	 29	 0.0237	 0.0943	 0.0238	 165.0	 165.0	 165.0	 0.0	 0.0	 1	 -8.490012	 8.490012;
	30	 17	 0.0	 0.0388	 0.0	 756.0	 756.0	 756.0	 0.96	 0.0	 1	 -8.490012	 8.490012;
	8	 30	 0.00431	 0.0504	 0.514	 580.0	 580.0	 580.0	 0.0	 0.0	 1	 -8.490012	 8.490012;
	26	 30	 0.00799	 0.086	 0.908	 340.0	 340.0	 340.0	 0.0	 0.0	 1	 -8.490012	 8.490012;
	17	 31	 0.0474	 0.1563	 0.0399	 151.0	 151.0	 151.0	 0.0	 0.0	 1	 -8.490012	 8.490012;
	29	 31	 0.0108	 0.0331	 0.0083	 146.0	 146.0	 146.0	 0.0	 0.0	 1	 -8.490012	 8.490012;
	23	 32	 0.0317	 0.1153	 0.1173	 158.0	 158.0	 158.0	 0.0	 0.0	 1	 -8.490012	 8.490012;
	31	 32	 0.0298	 0.0985	 0.0251	 151.0	 151.0	 151.0	 0.0	 0.0	 1	 -8.490012	 8.490012;
	27	 32	 0.0229	 0.0755	 0.01926	 151.0	 151.0	 151.0	 0.0	 0.0	 1	 -8.490012	 8.490012;
	15	 33	 0.038	 0.1244	 0.03194	 150.0	 150.0	 150.0	 0.0	 0.0	 1	 -8.490012	 8.490012;
	19	 34	 0.0752	 0.247	 0.0632	 114.0	 114.0	 114.0	 0.0	 0.0	 1	 -8.490012	 8.490012;
	35	 36	 0.00224	 0.0102	 0.00268	 176.0	 176.0	 176.0	 0.0	 0.0	 1	 -8.490012	 8.490012;
	35	 37	 0.011	 0.0497	 0.01318	 175.0	 175.0	 175.0	 0.0	 0.0	 1	 -8.490012	 8.490012;
	33	 37	 0.0415	 0.142	 0.0366	 154.0	 154.0	 154.0	 0.0	 0.0	 1	 -8.490012	 8.490012;
	34	 36	 0.00871	 0.0268	 0.00568	 146.0	 146.0	 146.0	 0.0	 0.0	 1	 -8.490012	 8.490012;
	34	 37	 0.00256	 0.0094	 0.00984	 159.0	 159.0	 159.0	 0.0	 0.0	 1	 -8.490012	 8.490012;
	38	 37	 0.0	 0.0375	 0.0	 783.0	 783.0	 783.0	 0.935	 0.0	 1	 -8.490012	 8.490012;
	37	 39	 0.0321	 0.106	 0.027	 151.0	 151.0	 151.0	 0.0	 0.0	 1	 -8.490012	 8.490012;
	37	 40	 0.0593	 0.168	 0.042	 140.0	 140.0	 140.0	 0.0	 0.0	 1	 -8.490012	 8.490012;
	30	 38	 0.00464	 0.054	 0.422	 542.0	 542.0	 542.0	 0.0	 0.0	 1	 -8.490012	 8.490012;
	39	 40	 0.0184	 0.0605	 0.01552	 151.0	 151.0	 151.0	 0.0	 0.0	 1	 -8.490012	 8.490012;
	40	 41	 0.0145	 0.0487	 0.01222	 152.0	 152.0	 152.0	 0.0	 0.0	 1	 -8.490012	 8.490012;
	40	 42	 0.0555	 0.183	 0.0466	 151.0	 151.0	 151.0	 0.0	 0.0	 1	 -8.490012	 8.490012;
	41	 42	 0.041	 0.135	 0.0344	 151.0	 151.0	 151.0	 0.0	 0.0	 1	 -8.490012	 8.490012;
	43	 44	 0.0608	 0.2454	 0.06068	 117.0	 117.0	 117.0	 0.0	 0.0	 1	 -8.490012	 8.490012;
	34	 43	 0.0413	 0.1681	 0.04226	 167.0	 167.0	 167.0	 0.0	 0.0	 1	 -8.490012	 8.490012;
	44	 45	 0.0224	 0.0901	 0.0224	 166.0	 166.0	 166.0	 0.0	 0.0	 1	 -8.490012	 8.490012;
	45	 46	 0.04	 0.1356	 0.0332	 153.0	 153.0	 153.0	 0.0	 0.0	 1	 -8.490012	 8.490012;
	46	 47	 0.038	 0.127	 0.0316	 152.0	 152.0	 152.0	 0.0	 0.0	 1	 -8.490012	 8.490012;
	46	 48	 0.0601	 0.189	 0.0472	 148.0	 148.0	 148.0	 0.0	 0.0	 1	 -8.490012	 8.490012;
	47	 49	 0.0191	 0.0625	 0.01604	 150.0	 150.0	 150.0	 0.0	 0.0	 1	 -8.490012	 8.490012;
	42	 49	 0.0715	 0.323	 0.086	 89.0	 89.0	 89.0	 0.0	 0.0	 1	 -8.490012	 8.490012;
	42	 49	 0.0715	 0.323	 0.086	 89.0	 89.0	 89.0	 0.0	 0.0	 1	 -8.490012	 8.490012;
	45	 49	 0.0684	 0.186	 0.0444	 138.0	 138.0	 138.0	 0.0	 0.0	 1	 -8.490012	 8.490012;
	48	 49	 0.0179	 0.0505	 0.01258	 140.0	 140.0	 140.0	 0.0	 0.0	 1	 -8.490012	 8.490012;
	49	 50	 0.0267	 0.0752	 0.01874	 140.0	 140.0	 140.0	 0.0	 0.0	 1	 -8.490012	 8.490012;
	49	 51	 0.0486	 0.137	 0.0342	 140.0	 140.0	 140.0	 0.0	 0.0	 1	 -8.490012	 8.490012;
	51	 52	 0.0203	 0.0588	 0.01396	 142.0	 142.0	 142.0	 0.0	 0.0	 1	 -8.490012	 8.490012;
	52	 53	 0.0405	 0.1635	 0.04058	 166.0	 166.0	 166.0	 0.0	 0.0	 1	 -8.490012	 8.490012;
	53	 54	 0.0263	 0.122	 0.031	 177.0	 177.0	 177.0	 0.0	 0.0	 1	 -8.490012	 8.490012;
	49	 54	 0.073	 0.289	 0.0738	 99.0	 99.0	 99.0	 0.0	 0.0	 1	 -8.490012	 8.490012;
	49	 54	 0.0869	 0.291	 0.073	 97.0	 97.0	 97.0	 0.0	 0.0	 1	 -8.490012	 8.490012;
	54	 55	 0.0169	 0.0707	 0.0202	 169.0	 169.0	 169.0	 0.0	 0.0	 1	 -8.490012	 8.490012;
	54	 56	 0.00275	 0.00955	 0.00732	 155.0	 155.0	 155.0	 0.0	 0.0	 1	 -8.490012	 8.490012;
	55	 56	 0.00488	 0.0151	 0.00374	 146.0	 146.0	 146.0	 0.0	 0.0	 1	 -8.490012	 8.490012;
	56	 57	 0.0343	 0.0966	 0.0242	 140.0	 140.0	 140.0	 0.0	 0.0	 1	 -8.490012	 8.490012;
	50	 57	 0.0474	 0.134	 0.0332	 140.0	 140.0	 140.0	 0.0	 0.0	 1	 -8.490012	 8.490012;
	56	 58	 0.0343	 0.0966	 0.0242	 140.0	 140.0	 140.0	 0.0	 0.0	 1	 -8.490012	 8.490012;
	51	 58	 0.0255	 0.0719	 0.01788	 140.0	 140.0	 140.0	 0.0	 0.0	 1	 -8.490012	 8.490012;
	54	 59	 0.0503	 0.2293	 0.0598	 125.0	 125.0	 125.0	 0.0	 0.0	 1	 -8.490012	 8.490012;
	56	 59	 0.0825	 0.251	 0.0569	 112.0	 112.0	 112.0	 0.0	 0.0	 1	 -8.490012	 8.490012;
	56	 59	 0.0803	 0.239	 0.0536	 117.0	 117.0	 117.0	 0.0	 0.0	 1	 -8.490012	 8.490012;
	55	 59	 0.04739	 0.2158	 0.05646	 133.0	 133.0	 133.0	 0.0	 0.0	 1	 -8.490012	 8.490012;
	59	 60	 0.0317	 0.145	 0.0376	 176.0	 176.0	 176.0	 0.0	 0.0	 1	 -8.490012	 8.490012;
	59	 61	 0.0328	 0.15	 0.0388	 176.0	 176.0	 176.0	 0.0	 0.0	 1	 -8.490012	 8.490012;
	60	 61	 0.00264	 0.0135	 0.01456	 186.0	 186.0	 186.0	 0.0	 0.0	 1	 -8.490012	 8.490012;
	60	 62	 0.0123	 0.0561	 0.01468	 176.0	 176.0	 176.0	 0.0	 0.0	 1	 -8.490012	 8.490012;
	61	 62	 0.00824	 0.0376	 0.0098	 176.0	 176.0	 176.0	 0.0	 0.0	 1	 -8.490012	 8.490012;
	63	 59	 0.0	 0.0386	 0.0	 760.0	 760.0	 760.0	 0.96	 0.0	 1	 -8.490012	 8.490012;
	63	 64	 0.00172	 0.02	 0.216	 687.0	 687.0	 687.0	 0.0	 0.0	 1	 -8.490012	 8.490012;
	64	 61	 0.0	 0.0268	 0.0	 1095.0	 1095.0	 1095.0	 0.985	 0.0	 1	 -8.490012	 8.490012;
	38	 65	 0.00901	 0.0986	 1.046	 297.0	 297.0	 297.0	 0.0	 0.0	 1	 -8.490012	 8.490012;
	64	 65	 0.00269	 0.0302	 0.38	 675.0	 675.0	 675.0	 0.0	 0.0	 1	 -8.490012	 8.490012;
	49	 66	 0.018	 0.0919	 0.0248	 186.0	 186.0	 186.0	 0.0	 0.0	 1	 -8.490012	 8.490012;
	49	 66	 0.018	 0.0919	 0.0248	 186.0	 186.0	 186.0	 0.0	 0.0	 1	 -8.490012	 8.490012;
	62	 66	 0.0482	 0.218	 0.0578	 132.0	 132.0	 132.0	 0.0	 0.0	 1	 -8.490012	 8.490012;
	62	 67	 0.0258	 0.117	 0.031	 176.0	 176.0	 176.0	 0.0	 0.0	 1	 -8.490012	 8.490012;
	65	 66	 0.0	 0.037	 0.0	 793.0	 793.0	 793.0	 0.935	 0.0	 1	 -8.490012	 8.490012;
	66	 67	 0.0224	 0.1015	 0.02682	 176.0	 176.0	 176.0	 0.0	 0.0	 1	 -8.490012	 8.490012;
	65	 68	 0.00138	 0.016	 0.638	 686.0	 686.0	 686.0	 0.0	 0.0	 1	 -8.490012	 8.490012;
	47	 69	 0.0844	 0.2778	 0.07092	 102.0	 102.0	 102.0	 0.0	 0.0	 1	 -8.490012	 8.490012;
	49	 69	 0.0985	 0.324	 0.0828	 87.0	 87.0	 87.0	 0.0	 0.0	 1	 -8.490012	 8.490012;
	68	 69	 0.0	 0.037	 0.0	 793.0	 793.0	 793.0	 0.935	 0.0	 1	 -8.490012	 8.490012;
	69	 70	 0.03	 0.127	 0.122	 170.0	 170.0	 170.0	 0.0	 0.0	 1	 -8.490012	 8.490012;
	24	 70	 0.00221	 0.4115	 0.10198	 72.0	 72.0	 72.0	 0.0	 0.0	 1	 -8.490012	 8.490012;
	70	 71	 0.00882	 0.0355	 0.00878	 166.0	 166.0	 166.0	 0.0	 0.0	 1	 -8.490012	 8.490012;
	24	 72	 0.0488	 0.196	 0.0488	 146.0	 146.0	 146.0	 0.0	 0.0	 1	 -8.490012	 8.490012;
	71	 72	 0.0446	 0.18	 0.04444	 159.0	 159.0	 159.0	 0.0	 0.0	 1	 -8.490012	 8.490012;
	71	 73	 0.00866	 0.0454	 0.01178	 188.0	 188.0	 188.0	 0.0	 0.0	 1	 -8.490012	 8.490012;
	70	 74	 0.0401	 0.1323	 0.03368	 151.0	 151.0	 151.0	 0.0	 0.0	 1	 -8.490012	 8.490012;
	70	 75	 0.0428	 0.141	 0.036	 151.0	 151.0	 151.0	 0.0	 0.0	 1	 -8.490012	 8.490012;
	69	 75	 0.0405	 0.122	 0.124	 145.0	 145.0	 145.0	 0.0	 0.0	 1	 -8.490012	 8.490012;
	74	 75	 0.0123	 0.0406	 0.01034	 151.0	 151.0	 151.0	 0.0	 0.0	 1	 -8.490012	 8.490012;
	76	 77	 0.0444	 0.148	 0.0368	 152.0	 152.0	 152.0	 0.0	 0.0	 1	 -8.490012	 8.490012;
	69	 77	 0.0309	 0.101	 0.1038	 150.0	 150.0	 150.0	 0.0	 0.0	 1	 -8.490012	 8.490012;
	75	 77	 0.0601	 0.1999	 0.04978	 141.0	 141.0	 141.0	 0.0	 0.0	 1	 -8.490012	 8.490012;
	77	 78	 0.00376	 0.0124	 0.01264	 151.0	 151.0	 151.0	 0.0	 0.0	 1	 -8.490012	 8.490012;
	78	 79	 0.00546	 0.0244	 0.00648	 174.0	 174.0	 174.0	 0.0	 0.0	 1	 -8.490012	 8.490012;
	77	 80	 0.017	 0.0485	 0.0472	 141.0	 141.0	 141.0	 0.0	 0.0	 1	 -8.490012	 8.490012;
	77	 80	 0.0294	 0.105	 0.0228	 157.0	 157.0	 157.0	 0.0	 0.0	 1	 -8.490012	 8.490012;
	79	 80	 0.0156	 0.0704	 0.0187	 175.0	 175.0	 175.0	 0.0	 0.0	 1	 -8.490012	 8.490012;
	68	 81	 0.00175	 0.0202	 0.808	 684.0	 684.0	 684.0	 0.0	 0.0	 1	 -8.490012	 8.490012;
	81	 80	 0.0	 0.037	 0.0	 793.0	 793.0	 793.0	 0.935	 0.0	 1	 -8.490012	 8.490012;
	77	 82	 0.0298	 0.0853	 0.08174	 141.0	 141.0	 141.0	 0.0	 0.0	 1	 -8.490012	 8.490012;
	82	 83	 0.0112	 0.03665	 0.03796	 150.0	 150.0	 150.0	 0.0	 0.0	 1	 -8.490012	 8.490012;
	83	 84	 0.0625	 0.132	 0.0258	 122.0	 122.0	 122.0	 0.0	 0.0	 1	 -8.490012	 8.490012;
	83	 85	 0.043	 0.148	 0.0348	 154.0	 154.0	 154.0	 0.0	 0.0	 1	 -8.490012	 8.490012;
	84	 85	 0.0302	 0.0641	 0.01234	 122.0	 122.0	 122.0	 0.0	 0.0	 1	 -8.490012	 8.490012;
	85	 86	 0.035	 0.123	 0.0276	 156.0	 156.0	 156.0	 0.0	 0.0	 1	 -8.490012	 8.490012;
	86	 87	 0.02828	 0.2074	 0.0445	 141.0	 141.0	 141.0	 0.0	 0.0	 1	 -8.490012	 8.490012;
	85	 88	 0.02	 0.102	 0.0276	 186.0	 186.0	 186.0	 0.0	 0.0	 1	 -8.490012	 8.490012;
	85	 89	 0.0239	 0.173	 0.047	 168.0	 168.0	 168.0	 0.0	 0.0	 1	 -8.490012	 8.490012;
	88	 89	 0.0139	 0.0712	 0.01934	 186.0	 186.0	 186.0	 0.0	 0.0	 1	 -8.490012	 8.490012;
	89	 90	 0.0518	 0.188	 0.0528	 151.0	 151.0	 151.0	 0.0	 0.0	 1	 -8.490012	 8.490012;
	89	 90	 0.0238	 0.0997	 0.106	 169.0	 169.0	 169.0	 0.0	 0.0	 1	 -8.490012	 8.490012;
	90	 91	 0.0254	 0.0836	 0.0214	 151.0	 151.0	 151.0	 0.0	 0.0	 1	 -8.490012	 8.490012;
	89	 92	 0.0099	 0.0505	 0.0548	 186.0	 186.0	 186.0	 0.0	 0.0	 1	 -8.490012	 8.490012;
	89	 92	 0.0393	 0.1581	 0.0414	 166.0	 166.0	 166.0	 0.0	 0.0	 1	 -8.490012	 8.490012;
	91	 92	 0.0387	 0.1272	 0.03268	 151.0	 151.0	 151.0	 0.0	 0.0	 1	 -8.490012	 8.490012;
	92	 93	 0.0258	 0.0848	 0.0218	 151.0	 151.0	 151.0	 0.0	 0.0	 1	 -8.490012	 8.490012;
	92	 94	 0.0481	 0.158	 0.0406	 151.0	 151.0	 151.0	 0.0	 0.0	 1	 -8.490012	 8.490012;
	93	 94	 0.0223	 0.0732	 0.01876	 151.0	 151.0	 151.0	 0.0	 0.0	 1	 -8.490012	 8.490012;
	94	 95	 0.0132	 0.0434	 0.0111	 151.0	 151.0	 151.0	 0.0	 0.0	 1	 -8.490012	 8.490012;
	80	 96	 0.0356	 0.182	 0.0494	 159.0	 159.0	 159.0	 0.0	 0.0	 1	 -8.490012	 8.490012;
	82	 96	 0.0162	 0.053	 0.0544	 150.0	 150.0	 150.0	 0.0	 0.0	 1	 -8.490012	 8.490012;
	94	 96	 0.0269	 0.0869	 0.023	 149.0	 149.0	 149.0	 0.0	 0.0	 1	 -8.490012	 8.490012;
	80	 97	 0.0183	 0.0934	 0.0254	 186.0	 186.0	 186.0	 0.0	 0.0	 1	 -8.490012	 8.490012;
	80	 98	 0.0238	 0.108	 0.0286	 176.0	 176.0	 176.0	 0.0	 0.0	 1	 -8.490012	 8.490012;
	80	 99	 0.0454	 0.206	 0.0546	 140.0	 140.0	 140.0	 0.0	 0.0	 1	 -8.490012	 8.490012;
	92	 100	 0.0648	 0.295	 0.0472	 98.0	 98.0	 98.0	 0.0	 0.0	 1	 -8.490012	 8.490012;
	94	 100	 0.0178	 0.058	 0.0604	 150.0	 150.0	 150.0	 0.0	 0.0	 1	 -8.490012	 8.490012;
	95	 96	 0.0171	 0.0547	 0.01474	 149.0	 149.0	 149.0	 0.0	 0.0	 1	 -8.490012	 8.490012;
	96	 97	 0.0173	 0.0885	 0.024	 186.0	 186.0	 186.0	 0.0	 0.0	 1	 -8.490012	 8.490012;
	98	 100	 0.0397	 0.179	 0.0476	 160.0	 160.0	 160.0	 0.0	 0.0	 1	 -8.490012	 8.490012;
	99	 100	 0.018	 0.0813	 0.0216	 175.0	 175.0	 175.0	 0.0	 0.0	 1	 -8.490012	 8.490012;
	100	 101	 0.0277	 0.1262	 0.0328	 176.0	 176.0	 176.0	 0.0	 0.0	 1	 -8.490012	 8.490012;
	92	 102	 0.0123	 0.0559	 0.01464	 176.0	 176.0	 176.0	 0.0	 0.0	 1	 -8.490012	 8.490012;
	101	 102	 0.0246	 0.112	 0.0294	 176.0	 176.0	 176.0	 0.0	 0.0	 1	 -8.490012	 8.490012;
	100	 103	 0.016	 0.0525	 0.0536	 151.0	 151.0	 151.0	 0.0	 0.0	 1	 -8.490012	 8.490012;
	100	 104	 0.0451	 0.204	 0.0541	 141.0	 141.0	 141.0	 0.0	 0.0	 1	 -8.490012	 8.490012;
	103	 104	 0.0466	 0.1584	 0.0407	 153.0	 153.0	 153.0	 0.0	 0.0	 1	 -8.490012	 8.490012;
	103	 105	 0.0535	 0.1625	 0.0408	 145.0	 145.0	 145.0	 0.0	 0.0	 1	 -8.490012	 8.490012;
	100	 106	 0.0605	 0.229	 0.062	 124.0	 124.0	 124.0	 0.0	 0.0	 1	 -8.490012	 8.490012;
	104	 105	 0.00994	 0.0378	 0.00986	 161.0	 161.0	 161.0	 0.0	 0.0	 1	 -8.490012	 8.490012;
	105	 106	 0.014	 0.0547	 0.01434	 164.0	 164.0	 164.0	 0.0	 0.0	 1	 -8.490012	 8.490012;
	105	 107	 0.053	 0.183	 0.0472	 154.0	 154.0	 154.0	 0.0	 0.0	 1	 -8.490012	 8.490012;
	105	 108	 0.0261	 0.0703	 0.01844	 137.0	 137.0	 137.0	 0.0	 0.0	 1	 -8.490012	 8.490012;
	106	 107	 0.053	 0.183	 0.0472	 154.0	 154.0	 154.0	 0.0	 0.0	 1	 -8.490012	 8.490012;
	108	 109	 0.0105	 0.0288	 0.0076	 138.0	 138.0	 138.0	 0.0	 0.0	 1	 -8.490012	 8.490012;
	103	 110	 0.03906	 0.1813	 0.0461	 159.0	 159.0	 159.0	 0.0	 0.0	 1	 -8.490012	 8.490012;
	109	 110	 0.0278	 0.0762	 0.0202	 138.0	 138.0	 138.0	 0.0	 0.0	 1	 -8.490012	 8.490012;
	110	 111	 0.022	 0.0755	 0.02	 154.0	 154.0	 154.0	 0.0	 0.0	 1	 -8.490012	 8.490012;
	110	 112	 0.0247	 0.064	 0.062	 135.0	 135.0	 135.0	 0.0	 0.0	 1	 -8.490012	 8.490012;
	17	 113	 0.00913	 0.0301	 0.00768	 151.0	 151.0	 151.0	 0.0	 0.0	 1	 -8.490012	 8.490012;
	32	 113	 0.0615	 0.203	 0.0518	 139.0	 139.0	 139.0	 0.0	 0.0	 1	 -8.490012	 8.490012;
	32	 114	 0.0135	 0.0612	 0.01628	 176.0	 176.0	 176.0	 0.0	 0.0	 1	 -8.490012	 8.490012;
	27	 115	 0.0164	 0.0741	 0.01972	 175.0	 175.0	 175.0	 0.0	 0.0	 1	 -8.490012	 8.490012;
	114	 115	 0.0023	 0.0104	 0.00276	 175.0	 175.0	 175.0	 0.0	 0.0	 1	 -8.490012	 8.490012;
	68	 116	 0.00034	 0.00405	 0.164	 7218.0	 7218.0	 7218.0	 0.0	 0.0	 1	 -8.490012	 8.490012;
	12	 117	 0.0329	 0.14	 0.0358	 170.0	 170.0	 170.0	 0.0	 0.0	 1	 -8.490012	 8.490012;
	75	 118	 0.0145	 0.0481	 0.01198	 151.0	 151.0	 151.0	 0.0	 0.0	 1	 -8.490012	 8.490012;
	76	 118	 0.0164	 0.0544	 0.01356	 151.0	 151.0	 151.0	 0.0	 0.0	 1	 -8.490012	 8.490012;
];

% INFO    : === Translation Options ===
% INFO    : Phase Angle Bound:           8.490012 (deg.)
% INFO    : AC OPF Solution File:        ./nesta_case118_ieee__sad.m.opf.sol
% INFO    : 
% INFO    : === Voltage Setpoint Replacement Notes ===
% INFO    : Bus 1	: V=1.03313, theta=-32.79829 -> V=1.03469, theta=-4.41187
% INFO    : Bus 2	: V=1.04476, theta=-31.43391 -> V=1.0455, theta=-3.51549
% INFO    : Bus 3	: V=1.03885, theta=-32.29547 -> V=1.04071, theta=-3.71239
% INFO    : Bus 4	: V=1.05719, theta=-30.64013 -> V=1.06, theta=-1.11653
% INFO    : Bus 5	: V=1.05562, theta=-30.42957 -> V=1.05847, theta=-0.74197
% INFO    : Bus 6	: V=1.05524, theta=-31.14479 -> V=1.05842, theta=-2.49079
% INFO    : Bus 7	: V=1.05615, theta=-30.84911 -> V=1.05832, theta=-2.58099
% INFO    : Bus 8	: V=1.04474, theta=-28.85812 -> V=1.04251, theta=2.70617
% INFO    : Bus 9	: V=1.06, theta=-28.9275 -> V=1.06, theta=10.70883
% INFO    : Bus 10	: V=1.03529, theta=-28.8205 -> V=1.06, theta=19.19885
% INFO    : Bus 11	: V=1.05162, theta=-30.76612 -> V=1.05213, theta=-2.69086
% INFO    : Bus 12	: V=1.05999, theta=-30.04186 -> V=1.06, theta=-2.40431
% INFO    : Bus 13	: V=1.0391, theta=-31.57015 -> V=1.03796, theta=-5.16772
% INFO    : Bus 14	: V=1.05645, theta=-30.51913 -> V=1.05466, theta=-4.68775
% INFO    : Bus 15	: V=1.04944, theta=-30.35121 -> V=1.04866, theta=-9.5586
% INFO    : Bus 16	: V=1.05302, theta=-30.17322 -> V=1.05212, theta=-4.74314
% INFO    : Bus 17	: V=1.06, theta=-28.29202 -> V=1.06, theta=-7.62496
% INFO    : Bus 18	: V=1.05264, theta=-30.09584 -> V=1.05408, theta=-9.88946
% INFO    : Bus 19	: V=1.04789, theta=-30.27721 -> V=1.04808, theta=-10.48564
% INFO    : Bus 20	: V=1.03471, theta=-28.79835 -> V=1.0362, theta=-10.86025
% INFO    : Bus 21	: V=1.02936, theta=-26.8859 -> V=1.03101, theta=-10.31927
% INFO    : Bus 22	: V=1.03326, theta=-24.02807 -> V=1.03345, theta=-9.03157
% INFO    : Bus 23	: V=1.05205, theta=-18.62826 -> V=1.04487, theta=-6.13188
% INFO    : Bus 24	: V=1.05682, theta=-17.50102 -> V=1.06, theta=-7.10431
% INFO    : Bus 25	: V=1.06, theta=-12.69922 -> V=1.06, theta=-0.48786
% INFO    : Bus 26	: V=1.02524, theta=-12.31737 -> V=1.0534, theta=3.22041
% INFO    : Bus 27	: V=1.04142, theta=-25.04041 -> V=0.94, theta=-8.97787
% INFO    : Bus 28	: V=1.03325, theta=-26.56574 -> V=0.95101, theta=-10.06538
% INFO    : Bus 29	: V=1.03199, theta=-27.45759 -> V=0.97206, theta=-10.3302
% INFO    : Bus 30	: V=1.02883, theta=-24.89177 -> V=1.03443, theta=-3.24945
% INFO    : Bus 31	: V=1.03444, theta=-27.36116 -> V=0.983, theta=-9.99183
% INFO    : Bus 32	: V=1.04234, theta=-25.60297 -> V=0.98465, theta=-9.60682
% INFO    : Bus 33	: V=1.04644, theta=-29.73962 -> V=1.04579, theta=-11.48363
% INFO    : Bus 34	: V=1.05777, theta=-27.93122 -> V=1.05832, theta=-12.53055
% INFO    : Bus 35	: V=1.0552, theta=-28.33563 -> V=1.05551, theta=-12.93327
% INFO    : Bus 36	: V=1.05573, theta=-28.34858 -> V=1.0561, theta=-12.94633
% INFO    : Bus 37	: V=1.06, theta=-27.4781 -> V=1.06, theta=-12.07537
% INFO    : Bus 38	: V=1.00989, theta=-23.11262 -> V=1.01557, theta=-7.27739
% INFO    : Bus 39	: V=1.03411, theta=-29.53573 -> V=1.01961, theta=-15.79381
% INFO    : Bus 40	: V=1.02963, theta=-29.9514 -> V=1.00817, theta=-17.2028
% INFO    : Bus 41	: V=1.01757, theta=-29.83569 -> V=0.98316, theta=-17.75938
% INFO    : Bus 42	: V=1.01043, theta=-26.88647 -> V=0.94, theta=-16.49378
% INFO    : Bus 43	: V=1.02843, theta=-26.3139 -> V=1.04254, theta=-13.92043
% INFO    : Bus 44	: V=1.00429, theta=-21.41768 -> V=1.0337, theta=-13.6931
% INFO    : Bus 45	: V=0.99592, theta=-18.65546 -> V=1.02786, theta=-12.7448
% INFO    : Bus 46	: V=1.01212, theta=-15.50406 -> V=1.04185, theta=-11.01208
% INFO    : Bus 47	: V=1.01972, theta=-11.98215 -> V=1.04452, theta=-8.49001
% INFO    : Bus 48	: V=1.02043, theta=-13.08165 -> V=1.04673, theta=-9.11845
% INFO    : Bus 49	: V=1.02323, theta=-11.80917 -> V=1.04792, theta=-8.00377
% INFO    : Bus 50	: V=1.01133, theta=-15.01813 -> V=1.03325, theta=-10.72529
% INFO    : Bus 51	: V=0.99379, theta=-19.02717 -> V=1.01208, theta=-14.13888
% INFO    : Bus 52	: V=0.98829, theta=-20.33167 -> V=1.00579, theta=-15.27355
% INFO    : Bus 53	: V=0.99145, theta=-22.26595 -> V=1.00547, theta=-16.82201
% INFO    : Bus 54	: V=1.01028, theta=-22.16971 -> V=1.0211, theta=-16.49378
% INFO    : Bus 55	: V=1.01049, theta=-22.53067 -> V=1.01753, theta=-16.88752
% INFO    : Bus 56	: V=1.00978, theta=-22.23337 -> V=1.01832, theta=-16.61756
% INFO    : Bus 57	: V=1.00607, theta=-19.58747 -> V=1.02092, theta=-14.49771
% INFO    : Bus 58	: V=0.99809, theta=-20.68386 -> V=1.01243, theta=-15.46918
% INFO    : Bus 59	: V=1.04823, theta=-20.01733 -> V=1.02219, theta=-14.25482
% INFO    : Bus 60	: V=1.05498, theta=-15.19733 -> V=0.99903, theta=-9.24458
% INFO    : Bus 61	: V=1.06, theta=-14.58431 -> V=0.99949, theta=-8.46443
% INFO    : Bus 62	: V=1.04635, theta=-13.62156 -> V=0.9984, theta=-8.00377
% INFO    : Bus 63	: V=1.01792, theta=-15.38992 -> V=0.98768, theta=-9.36541
% INFO    : Bus 64	: V=1.02901, theta=-12.8773 -> V=0.99627, theta=-6.67722
% INFO    : Bus 65	: V=1.02987, theta=-6.98042 -> V=1.02496, theta=-0.791
% INFO    : Bus 66	: V=1.06, theta=-2.98216 -> V=1.06, theta=0.48624
% INFO    : Bus 67	: V=1.04383, theta=-8.66117 -> V=1.02309, theta=-4.13333
% INFO    : Bus 68	: V=1.02062, theta=-5.69946 -> V=1.04709, theta=-2.6489
% INFO    : Bus 69	: V=1.06, theta=0.0 -> V=1.06, theta=-0.0
% INFO    : Bus 70	: V=1.0317, theta=-10.14942 -> V=1.02954, theta=-7.69733
% INFO    : Bus 71	: V=1.03547, theta=-11.05503 -> V=1.03161, theta=-7.86344
% INFO    : Bus 72	: V=1.04425, theta=-14.80433 -> V=1.04051, theta=-8.06154
% INFO    : Bus 73	: V=1.03745, theta=-11.22651 -> V=1.03066, theta=-8.00553
% INFO    : Bus 74	: V=1.01048, theta=-10.62644 -> V=0.9971, theta=-9.40146
% INFO    : Bus 75	: V=1.01395, theta=-9.2555 -> V=1.00349, theta=-8.49001
% INFO    : Bus 76	: V=0.9996, theta=-10.91934 -> V=0.98267, theta=-10.95653
% INFO    : Bus 77	: V=1.0441, theta=-6.87285 -> V=1.02842, theta=-8.01238
% INFO    : Bus 78	: V=1.0397, theta=-7.20945 -> V=1.02562, theta=-8.48818
% INFO    : Bus 79	: V=1.04174, theta=-7.04886 -> V=1.03124, theta=-8.55873
% INFO    : Bus 80	: V=1.06, theta=-5.24129 -> V=1.06, theta=-7.3914
% INFO    : Bus 81	: V=1.01451, theta=-5.50728 -> V=1.02817, theta=-4.36384
% INFO    : Bus 82	: V=1.03483, theta=-7.93386 -> V=1.02745, theta=-9.22039
% INFO    : Bus 83	: V=1.03737, theta=-7.34853 -> V=1.03116, theta=-8.58722
% INFO    : Bus 84	: V=1.04085, theta=-5.8742 -> V=1.03671, theta=-7.04245
% INFO    : Bus 85	: V=1.04907, theta=-4.87492 -> V=1.04599, theta=-6.00978
% INFO    : Bus 86	: V=1.04208, theta=-6.23523 -> V=1.03894, theta=-7.37751
% INFO    : Bus 87	: V=1.05481, theta=-6.33068 -> V=1.05168, theta=-7.47332
% INFO    : Bus 88	: V=1.04735, theta=-2.48518 -> V=1.04602, theta=-3.54624
% INFO    : Bus 89	: V=1.06, theta=0.87743 -> V=1.06, theta=-0.13542
% INFO    : Bus 90	: V=1.05126, theta=-4.87373 -> V=1.05151, theta=-5.8901
% INFO    : Bus 91	: V=1.04436, theta=-4.7334 -> V=1.04433, theta=-5.74687
% INFO    : Bus 92	: V=1.04495, theta=-3.97188 -> V=1.04462, theta=-4.98269
% INFO    : Bus 93	: V=1.03499, theta=-6.20851 -> V=1.03393, theta=-7.27272
% INFO    : Bus 94	: V=1.03344, theta=-7.74757 -> V=1.03182, theta=-8.85985
% INFO    : Bus 95	: V=1.023, theta=-8.24044 -> V=1.02047, theta=-9.48716
% INFO    : Bus 96	: V=1.03266, theta=-7.88686 -> V=1.02905, theta=-9.29883
% INFO    : Bus 97	: V=1.04162, theta=-6.91133 -> V=1.03989, theta=-8.68658
% INFO    : Bus 98	: V=1.04955, theta=-7.70927 -> V=1.04985, theta=-9.35893
% INFO    : Bus 99	: V=1.0516, theta=-9.04319 -> V=1.05124, theta=-10.2308
% INFO    : Bus 100	: V=1.05328, theta=-8.7486 -> V=1.05333, theta=-9.56465
% INFO    : Bus 101	: V=1.0369, theta=-7.50844 -> V=1.03685, theta=-8.40812
% INFO    : Bus 102	: V=1.04121, theta=-5.23894 -> V=1.041, theta=-6.2132
% INFO    : Bus 103	: V=1.05037, theta=-11.59117 -> V=1.05042, theta=-12.40693
% INFO    : Bus 104	: V=1.03709, theta=-14.87455 -> V=1.03714, theta=-15.69003
% INFO    : Bus 105	: V=1.03457, theta=-16.04051 -> V=1.03462, theta=-16.85587
% INFO    : Bus 106	: V=1.02649, theta=-16.17588 -> V=1.02654, theta=-16.99123
% INFO    : Bus 107	: V=1.02208, theta=-18.68691 -> V=1.02212, theta=-19.50199
% INFO    : Bus 108	: V=1.02796, theta=-17.58242 -> V=1.02801, theta=-18.39762
% INFO    : Bus 109	: V=1.02564, theta=-18.18553 -> V=1.02569, theta=-19.00068
% INFO    : Bus 110	: V=1.0232, theta=-19.47936 -> V=1.02325, theta=-20.29437
% INFO    : Bus 111	: V=1.02631, theta=-19.53009 -> V=1.02635, theta=-20.34507
% INFO    : Bus 112	: V=1.00975, theta=-21.98346 -> V=1.00979, theta=-22.79822
% INFO    : Bus 113	: V=1.05698, theta=-28.02777 -> V=1.05876, theta=-8.09491
% INFO    : Bus 114	: V=1.03742, theta=-25.85113 -> V=0.96088, theta=-9.91409
% INFO    : Bus 115	: V=1.03697, theta=-25.85161 -> V=0.95726, theta=-9.91889
% INFO    : Bus 116	: V=1.01953, theta=-6.10767 -> V=1.06, theta=-3.09574
% INFO    : Bus 117	: V=1.04531, theta=-31.38704 -> V=1.04532, theta=-3.74947
% INFO    : Bus 118	: V=1.00105, theta=-10.44914 -> V=0.98733, theta=-10.06484
% INFO    : 
% INFO    : === Generator Setpoint Replacement Notes ===
% INFO    : Gen at bus 1	: Pg=0.0, Qg=15.0 -> Pg=0.0, Qg=15.0
% INFO    : Gen at bus 1	: Vg=1.03313 -> Vg=1.03469
% INFO    : Gen at bus 4	: Pg=0.0, Qg=48.41 -> Pg=0.0, Qg=49.148
% INFO    : Gen at bus 4	: Vg=1.05719 -> Vg=1.06
% INFO    : Gen at bus 6	: Pg=0.0, Qg=27.254 -> Pg=0.0, Qg=33.761
% INFO    : Gen at bus 6	: Vg=1.05524 -> Vg=1.05842
% INFO    : Gen at bus 8	: Pg=0.0, Qg=-71.867 -> Pg=0.0, Qg=-58.9
% INFO    : Gen at bus 8	: Vg=1.04474 -> Vg=1.04251
% INFO    : Gen at bus 10	: Pg=0.0, Qg=-145.35 -> Pg=514.929, Qg=-72.121
% INFO    : Gen at bus 10	: Vg=1.03529 -> Vg=1.06
% INFO    : Gen at bus 12	: Pg=287.0, Qg=57.83 -> Pg=287.0, Qg=51.413
% INFO    : Gen at bus 12	: Vg=1.05999 -> Vg=1.06
% INFO    : Gen at bus 15	: Pg=0.0, Qg=30.0 -> Pg=0.0, Qg=30.0
% INFO    : Gen at bus 15	: Vg=1.04944 -> Vg=1.04866
% INFO    : Gen at bus 18	: Pg=0.0, Qg=43.331 -> Pg=0.0, Qg=50.0
% INFO    : Gen at bus 18	: Vg=1.05264 -> Vg=1.05408
% INFO    : Gen at bus 19	: Pg=0.0, Qg=24.0 -> Pg=0.0, Qg=24.0
% INFO    : Gen at bus 19	: Vg=1.04789 -> Vg=1.04808
% INFO    : Gen at bus 24	: Pg=0.0, Qg=9.365 -> Pg=0.0, Qg=44.739
% INFO    : Gen at bus 24	: Vg=1.05682 -> Vg=1.06
% INFO    : Gen at bus 25	: Pg=267.0, Qg=-47.0 -> Pg=42.132, Qg=-47.0
% INFO    : Gen at bus 25	: Vg=1.06 -> Vg=1.06
% INFO    : Gen at bus 26	: Pg=286.801, Qg=-25.058 -> Pg=341.364, Qg=81.001
% INFO    : Gen at bus 26	: Vg=1.02524 -> Vg=1.0534
% INFO    : Gen at bus 27	: Pg=0.0, Qg=30.48 -> Pg=0.0, Qg=-135.808
% INFO    : Gen at bus 27	: Vg=1.04142 -> Vg=0.94
% INFO    : Gen at bus 31	: Pg=23.0, Qg=12.0 -> Pg=23.0, Qg=12.0
% INFO    : Gen at bus 31	: Vg=1.03444 -> Vg=0.983
% INFO    : Gen at bus 32	: Pg=0.0, Qg=35.979 -> Pg=0.0, Qg=42.0
% INFO    : Gen at bus 32	: Vg=1.04234 -> Vg=0.98465
% INFO    : Gen at bus 34	: Pg=0.0, Qg=24.0 -> Pg=0.0, Qg=24.0
% INFO    : Gen at bus 34	: Vg=1.05777 -> Vg=1.05832
% INFO    : Gen at bus 36	: Pg=0.0, Qg=24.0 -> Pg=0.0, Qg=24.0
% INFO    : Gen at bus 36	: Vg=1.05573 -> Vg=1.0561
% INFO    : Gen at bus 40	: Pg=0.0, Qg=49.943 -> Pg=0.0, Qg=82.635
% INFO    : Gen at bus 40	: Vg=1.02963 -> Vg=1.00817
% INFO    : Gen at bus 42	: Pg=0.0, Qg=26.321 -> Pg=0.0, Qg=-88.061
% INFO    : Gen at bus 42	: Vg=1.01043 -> Vg=0.94
% INFO    : Gen at bus 46	: Pg=0.0, Qg=7.72 -> Pg=0.0, Qg=9.263
% INFO    : Gen at bus 46	: Vg=1.01212 -> Vg=1.04185
% INFO    : Gen at bus 49	: Pg=232.0, Qg=-11.01 -> Pg=160.827, Qg=116.0
% INFO    : Gen at bus 49	: Vg=1.02323 -> Vg=1.04792
% INFO    : Gen at bus 54	: Pg=0.0, Qg=55.706 -> Pg=39.686, Qg=75.0
% INFO    : Gen at bus 54	: Vg=1.01028 -> Vg=1.0211
% INFO    : Gen at bus 55	: Pg=0.0, Qg=23.0 -> Pg=0.0, Qg=23.0
% INFO    : Gen at bus 55	: Vg=1.01049 -> Vg=1.01753
% INFO    : Gen at bus 56	: Pg=0.0, Qg=15.0 -> Pg=0.0, Qg=15.0
% INFO    : Gen at bus 56	: Vg=1.00978 -> Vg=1.01832
% INFO    : Gen at bus 59	: Pg=0.0, Qg=141.0 -> Pg=0.0, Qg=141.0
% INFO    : Gen at bus 59	: Vg=1.04823 -> Vg=1.02219
% INFO    : Gen at bus 61	: Pg=0.0, Qg=124.577 -> Pg=23.544, Qg=-79.063
% INFO    : Gen at bus 61	: Vg=1.06 -> Vg=0.99949
% INFO    : Gen at bus 62	: Pg=0.0, Qg=-19.999 -> Pg=0.0, Qg=-20.0
% INFO    : Gen at bus 62	: Vg=1.04635 -> Vg=0.9984
% INFO    : Gen at bus 65	: Pg=295.338, Qg=119.802 -> Pg=608.0, Qg=-67.0
% INFO    : Gen at bus 65	: Vg=1.02987 -> Vg=1.02496
% INFO    : Gen at bus 66	: Pg=829.47, Qg=-67.0 -> Pg=629.633, Qg=-67.0
% INFO    : Gen at bus 66	: Vg=1.06 -> Vg=1.06
% INFO    : Gen at bus 69	: Pg=881.0, Qg=-114.523 -> Pg=650.432, Qg=-192.139
% INFO    : Gen at bus 69	: Vg=1.06 -> Vg=1.06
% INFO    : Gen at bus 70	: Pg=0.0, Qg=32.0 -> Pg=0.0, Qg=30.088
% INFO    : Gen at bus 70	: Vg=1.0317 -> Vg=1.02954
% INFO    : Gen at bus 72	: Pg=0.0, Qg=-1.835 -> Pg=0.0, Qg=-7.18
% INFO    : Gen at bus 72	: Vg=1.04425 -> Vg=1.04051
% INFO    : Gen at bus 73	: Pg=0.0, Qg=5.036 -> Pg=0.0, Qg=-1.632
% INFO    : Gen at bus 73	: Vg=1.03745 -> Vg=1.03066
% INFO    : Gen at bus 74	: Pg=0.0, Qg=9.0 -> Pg=0.0, Qg=-6.0
% INFO    : Gen at bus 74	: Vg=1.01048 -> Vg=0.9971
% INFO    : Gen at bus 76	: Pg=0.0, Qg=23.0 -> Pg=0.0, Qg=16.328
% INFO    : Gen at bus 76	: Vg=0.9996 -> Vg=0.98267
% INFO    : Gen at bus 77	: Pg=0.0, Qg=70.0 -> Pg=0.0, Qg=-20.0
% INFO    : Gen at bus 77	: Vg=1.0441 -> Vg=1.02842
% INFO    : Gen at bus 80	: Pg=445.771, Qg=-0.216 -> Pg=180.308, Qg=51.62
% INFO    : Gen at bus 80	: Vg=1.06 -> Vg=1.06
% INFO    : Gen at bus 85	: Pg=0.0, Qg=23.0 -> Pg=0.0, Qg=23.0
% INFO    : Gen at bus 85	: Vg=1.04907 -> Vg=1.04599
% INFO    : Gen at bus 87	: Pg=0.0, Qg=4.0 -> Pg=0.0, Qg=4.0
% INFO    : Gen at bus 87	: Vg=1.05481 -> Vg=1.05168
% INFO    : Gen at bus 89	: Pg=568.006, Qg=-31.564 -> Pg=571.013, Qg=-27.489
% INFO    : Gen at bus 89	: Vg=1.06 -> Vg=1.06
% INFO    : Gen at bus 90	: Pg=0.0, Qg=76.214 -> Pg=0.0, Qg=76.982
% INFO    : Gen at bus 90	: Vg=1.05126 -> Vg=1.05151
% INFO    : Gen at bus 91	: Pg=0.0, Qg=-8.923 -> Pg=0.0, Qg=-9.026
% INFO    : Gen at bus 91	: Vg=1.04436 -> Vg=1.04433
% INFO    : Gen at bus 92	: Pg=0.0, Qg=-3.0 -> Pg=0.0, Qg=-3.0
% INFO    : Gen at bus 92	: Vg=1.04495 -> Vg=1.04462
% INFO    : Gen at bus 99	: Pg=0.0, Qg=-0.197 -> Pg=0.0, Qg=-1.353
% INFO    : Gen at bus 99	: Vg=1.0516 -> Vg=1.05124
% INFO    : Gen at bus 100	: Pg=186.388, Qg=49.803 -> Pg=215.59, Qg=45.848
% INFO    : Gen at bus 100	: Vg=1.05328 -> Vg=1.05333
% INFO    : Gen at bus 103	: Pg=98.0, Qg=29.959 -> Pg=98.0, Qg=29.953
% INFO    : Gen at bus 103	: Vg=1.05037 -> Vg=1.05042
% INFO    : Gen at bus 104	: Pg=0.0, Qg=23.0 -> Pg=0.0, Qg=23.0
% INFO    : Gen at bus 104	: Vg=1.03709 -> Vg=1.03714
% INFO    : Gen at bus 105	: Pg=0.0, Qg=23.0 -> Pg=0.0, Qg=23.0
% INFO    : Gen at bus 105	: Vg=1.03457 -> Vg=1.03462
% INFO    : Gen at bus 107	: Pg=0.0, Qg=7.005 -> Pg=0.0, Qg=7.001
% INFO    : Gen at bus 107	: Vg=1.02208 -> Vg=1.02212
% INFO    : Gen at bus 110	: Pg=0.0, Qg=23.0 -> Pg=0.0, Qg=23.0
% INFO    : Gen at bus 110	: Vg=1.0232 -> Vg=1.02325
% INFO    : Gen at bus 111	: Pg=0.0, Qg=3.173 -> Pg=0.0, Qg=3.171
% INFO    : Gen at bus 111	: Vg=1.02631 -> Vg=1.02635
% INFO    : Gen at bus 112	: Pg=0.0, Qg=16.399 -> Pg=0.0, Qg=16.397
% INFO    : Gen at bus 112	: Vg=1.00975 -> Vg=1.00979
% INFO    : Gen at bus 113	: Pg=0.0, Qg=-3.984 -> Pg=0.0, Qg=33.073
% INFO    : Gen at bus 113	: Vg=1.05698 -> Vg=1.05876
% INFO    : Gen at bus 116	: Pg=0.0, Qg=-19.864 -> Pg=0.0, Qg=344.87
% INFO    : Gen at bus 116	: Vg=1.01953 -> Vg=1.06
% INFO    : 
% INFO    : === Writing Matpower Case File Notes ===
